Circuit: * FRESH 10s ADC run (LTspiceXVII) - derived from LTspice26 netlist of FULL_AFE_ADC_SH_xmodel_aligned.asc

WARNING: Less than two connections to node ADC_SIGNED.  This node is used by B3.
Direct Newton iteration for .op point succeeded.

Date: Sat Jul 18 15:44:23 2026
Total elapsed time: 30.720 seconds.

tnom = 27
temp = 27
method = modified trap
totiter = 5161870
traniter = 5161867
tranpoints = 2529088
accept = 2417098
rejected = 111990
matrix size = 64
fillins = 54
solver = Normal
Matrix Compiler1: 4.00 KB object code size  1.0/0.6/[0.2]
Matrix Compiler2: 5.08 KB object code size  0.6/0.8/[0.3]

